
  -INDIGO-11132420122D

  0  0  0  0  0  0  0  0  0  0  0 V3000
M  V30 BEGIN CTAB
M  V30 COUNTS 8 7 0 0 0
M  V30 BEGIN ATOM
M  V30 1 PEG-2 1.25 -1.25 0.0 0 CLASS=LINKER ATTCHORD=(2 2 Al)
M  V30 2 W 1.25 -2.75 0.0 0 CLASS=AA SEQID=1 ATTCHORD=(4 3 Br 1 Al)
M  V30 3 N 2.75 -2.75 0.0 0 CLASS=AA SEQID=2 ATTCHORD=(4 2 Al 4 Br)
M  V30 4 D 4.25 -2.75 0.0 0 CLASS=AA SEQID=3 ATTCHORD=(2 3 Al)
M  V30 5 A 1.25 -4.25 0.0 0 CLASS=AA SEQID=4 ATTCHORD=(4 6 Br 8 Al)
M  V30 6 C 2.75 -4.25 0.0 0 CLASS=AA SEQID=1 ATTCHORD=(4 5 Al 7 Br)
M  V30 7 D 4.25 -4.25 0.0 0 CLASS=AA SEQID=2 ATTCHORD=(4 6 Al 8 Br)
M  V30 8 E 5.75 -4.25 0.0 0 CLASS=AA SEQID=3 ATTCHORD=(4 7 Al 5 Br)
M  V30 END ATOM
M  V30 BEGIN BOND
M  V30 1 1 2 3
M  V30 2 1 3 4
M  V30 3 1 1 2
M  V30 4 1 5 6
M  V30 5 1 6 7
M  V30 6 1 7 8
M  V30 7 1 8 5
M  V30 END BOND
M  V30 END CTAB
M  V30 BEGIN TEMPLATE
M  V30 TEMPLATE 1 LINKER/PEG-2/PEG-2
M  V30 BEGIN CTAB
M  V30 COUNTS 9 8 3 0 0
M  V30 BEGIN ATOM
M  V30 1 O -3.8999 -0.3833 0.0 0
M  V30 2 C -2.5999 0.3667 0.0 0
M  V30 3 C -1.3 -0.3833 0.0 0
M  V30 4 O 0.0 0.3667 0.0 0
M  V30 5 C 1.3 -0.3833 0.0 0
M  V30 6 C 2.6 0.3667 0.0 0
M  V30 7 O 3.9 -0.3833 0.0 0
M  V30 8 H 4.9394 0.2164 0.0 0
M  V30 9 H -4.9394 0.2164 0.0 0
M  V30 END ATOM
M  V30 BEGIN BOND
M  V30 1 1 1 2
M  V30 2 1 2 3
M  V30 3 1 3 4
M  V30 4 1 4 5
M  V30 5 1 5 6
M  V30 6 1 6 7
M  V30 7 1 7 8
M  V30 8 1 1 9
M  V30 END BOND
M  V30 BEGIN SGROUP
M  V30 1 SUP 1 ATOMS=(1 9) XBONDS=(1 8) BRKXYZ=(9 0.519750 -0.299850 0.000000-
M  V30  0.000000 0.000000 0.000000 0.000000 0.000000 0.000000) LABEL=H CLASS=-
M  V30 LGRP
M  V30 2 SUP 2 ATOMS=(1 8) XBONDS=(1 7) BRKXYZ=(9 -0.519700 -0.299850 0.00000-
M  V30 0 0.000000 0.000000 0.000000 0.000000 0.000000 0.000000) LABEL=H CLASS-
M  V30 =LGRP
M  V30 3 SUP 3 ATOMS=(7 1 2 3 4 5 6 7) XBONDS=(2 8 7) BRKXYZ=(9 -0.519750 0.2-
M  V30 99850 0.000000 0.519700 0.299850 0.000000 0.000000 0.000000 0.000000) -
M  V30 LABEL=PEG-2 CLASS=LINKER SAP=(3 1 9 Al) SAP=(3 7 8 Br)
M  V30 END SGROUP
M  V30 END CTAB
M  V30 TEMPLATE 2 AA/Trp/W/ NATREPLACE=AA/W
M  V30 BEGIN CTAB
M  V30 COUNTS 17 18 4 0 0
M  V30 BEGIN ATOM
M  V30 1 C 2.0938 -2.3551 0.0 0
M  V30 2 O 2.0952 -3.3 0.0 0
M  V30 3 C 1.0698 -1.7652 0.0 0 CFG=1
M  V30 4 N 0.0459 -2.3551 0.0 0
M  V30 5 H -0.7723 -1.8826 0.0 0
M  V30 6 C 1.068 -0.5835 0.0 0
M  V30 7 C 0.0458 0.0055 0.0 0
M  V30 8 C -1.0319 -0.4779 0.0 0
M  V30 9 N -1.8246 0.3978 0.0 0
M  V30 10 C -1.237 1.4216 0.0 0
M  V30 11 C -0.081 1.1793 0.0 0
M  V30 12 C 0.7068 2.0591 0.0 0
M  V30 13 C 0.3387 3.1814 0.0 0
M  V30 14 C -0.8173 3.4238 0.0 0
M  V30 15 C -1.6051 2.5438 0.0 0
M  V30 16 O 2.9114 -1.8818 0.0 0
M  V30 17 H -3.0061 0.3887 0.0 0
M  V30 END ATOM
M  V30 BEGIN BOND
M  V30 1 2 2 1
M  V30 2 1 1 3
M  V30 3 1 3 4
M  V30 4 1 4 5
M  V30 5 1 3 6 CFG=1
M  V30 6 1 6 7
M  V30 7 2 8 7
M  V30 8 1 9 8
M  V30 9 1 10 9
M  V30 10 1 11 7
M  V30 11 2 11 10
M  V30 12 1 11 12
M  V30 13 2 12 13
M  V30 14 1 13 14
M  V30 15 1 15 10
M  V30 16 2 14 15
M  V30 17 1 1 16
M  V30 18 1 9 17
M  V30 END BOND
M  V30 BEGIN COLLECTION
M  V30 MDLV30/STEABS ATOMS=(1 3)
M  V30 END COLLECTION
M  V30 BEGIN SGROUP
M  V30 1 SUP 1 ATOMS=(1 5) XBONDS=(1 4) BRKXYZ=(9 0.409100 -0.236250 0.000000-
M  V30  0.000000 0.000000 0.000000 0.000000 0.000000 0.000000) LABEL=H CLASS=-
M  V30 LGRP
M  V30 2 SUP 2 ATOMS=(1 16) XBONDS=(1 17) BRKXYZ=(9 -0.408800 -0.236650 0.000-
M  V30 000 0.000000 0.000000 0.000000 0.000000 0.000000 0.000000) LABEL=OH CL-
M  V30 ASS=LGRP
M  V30 3 SUP 3 ATOMS=(1 17) XBONDS=(1 18) BRKXYZ=(9 0.590750 0.004550 0.00000-
M  V30 0 0.000000 0.000000 0.000000 0.000000 0.000000 0.000000) LABEL=H CLASS-
M  V30 =LGRP
M  V30 4 SUP 4 ATOMS=(14 1 2 3 4 6 7 8 9 10 11 12 13 14 15) XBONDS=(3 17 4 18-
M  V30 ) BRKXYZ=(9 0.408800 0.236650 0.000000 -0.409100 0.236250 0.000000 0.0-
M  V30 00000 0.000000 0.000000) BRKXYZ=(9 -0.590750 -0.004550 0.000000 0.0000-
M  V30 00 0.000000 0.000000 0.000000 0.000000 0.000000) LABEL=W CLASS=AA SAP=-
M  V30 (3 4 5 Al) SAP=(3 1 16 Br) SAP=(3 9 17 Cx) NATREPLACE=AA/W
M  V30 END SGROUP
M  V30 END CTAB
M  V30 TEMPLATE 3 AA/Asn/N/ NATREPLACE=AA/N
M  V30 BEGIN CTAB
M  V30 COUNTS 11 10 4 0 0
M  V30 BEGIN ATOM
M  V30 1 C 1.8929 -1.4175 0.0 0
M  V30 2 O 1.8947 -2.5989 0.0 0
M  V30 3 C 0.6127 -0.6799 0.0 0 CFG=1
M  V30 4 N -0.6676 -1.4175 0.0 0
M  V30 5 H -1.6907 -0.8266 0.0 0
M  V30 6 C 0.6104 0.7978 0.0 0
M  V30 7 C -0.6698 1.5354 0.0 0
M  V30 8 N -1.6922 0.9434 0.0 0
M  V30 9 O -0.6716 2.7168 0.0 0
M  V30 10 O 2.9153 -0.8255 0.0 0
M  V30 11 H -2.5341 1.7724 0.0 0
M  V30 END ATOM
M  V30 BEGIN BOND
M  V30 1 2 2 1
M  V30 2 1 1 3
M  V30 3 1 3 4
M  V30 4 1 4 5
M  V30 5 1 3 6 CFG=1
M  V30 6 1 6 7
M  V30 7 1 7 8
M  V30 8 2 7 9
M  V30 9 1 1 10
M  V30 10 1 8 11
M  V30 END BOND
M  V30 BEGIN COLLECTION
M  V30 MDLV30/STEABS ATOMS=(1 3)
M  V30 END COLLECTION
M  V30 BEGIN SGROUP
M  V30 1 SUP 1 ATOMS=(1 5) XBONDS=(1 4) BRKXYZ=(9 0.511550 -0.295450 0.000000-
M  V30  0.000000 0.000000 0.000000 0.000000 0.000000 0.000000) LABEL=H CLASS=-
M  V30 LGRP
M  V30 2 SUP 2 ATOMS=(1 10) XBONDS=(1 9) BRKXYZ=(9 -0.511200 -0.296000 0.0000-
M  V30 00 0.000000 0.000000 0.000000 0.000000 0.000000 0.000000) LABEL=OH CLA-
M  V30 SS=LGRP
M  V30 3 SUP 3 ATOMS=(1 11) XBONDS=(1 10) BRKXYZ=(9 0.420950 -0.414500 0.0000-
M  V30 00 0.000000 0.000000 0.000000 0.000000 0.000000 0.000000) LABEL=H CLAS-
M  V30 S=LGRP
M  V30 4 SUP 4 ATOMS=(8 1 2 3 4 6 7 8 9) XBONDS=(3 9 4 10) BRKXYZ=(9 0.511200-
M  V30  0.296000 0.000000 -0.511550 0.295450 0.000000 0.000000 0.000000 0.000-
M  V30 000) BRKXYZ=(9 -0.420950 0.414500 0.000000 0.000000 0.000000 0.000000 -
M  V30 0.000000 0.000000 0.000000) LABEL=N CLASS=AA SAP=(3 4 5 Al) SAP=(3 1 1-
M  V30 0 Br) SAP=(3 8 11 Cx) NATREPLACE=AA/N
M  V30 END SGROUP
M  V30 END CTAB
M  V30 TEMPLATE 4 AA/Asp/D/ NATREPLACE=AA/D
M  V30 BEGIN CTAB
M  V30 COUNTS 11 10 4 0 0
M  V30 BEGIN ATOM
M  V30 1 C 1.631 -1.5578 0.0 0
M  V30 2 O 1.6327 -2.7392 0.0 0
M  V30 3 C 0.3507 -0.8201 0.0 0 CFG=1
M  V30 4 N -0.9295 -1.5578 0.0 0
M  V30 5 H -1.9525 -0.9669 0.0 0
M  V30 6 C 0.3485 0.6575 0.0 0
M  V30 7 C -0.9317 1.3952 0.0 0
M  V30 8 O -1.9542 0.8032 0.0 0
M  V30 9 O -0.9335 2.5766 0.0 0
M  V30 10 O 2.6534 -0.9658 0.0 0
M  V30 11 H 0.0851 3.1751 0.0 0
M  V30 END ATOM
M  V30 BEGIN BOND
M  V30 1 2 2 1
M  V30 2 1 1 3
M  V30 3 1 3 4
M  V30 4 1 4 5
M  V30 5 1 3 6 CFG=1
M  V30 6 1 6 7
M  V30 7 2 7 8
M  V30 8 1 7 9
M  V30 9 1 1 10
M  V30 10 1 9 11
M  V30 END BOND
M  V30 BEGIN COLLECTION
M  V30 MDLV30/STEABS ATOMS=(1 3)
M  V30 END COLLECTION
M  V30 BEGIN SGROUP
M  V30 1 SUP 1 ATOMS=(1 5) XBONDS=(1 4) BRKXYZ=(9 0.511500 -0.295450 0.000000-
M  V30  0.000000 0.000000 0.000000 0.000000 0.000000 0.000000) LABEL=H CLASS=-
M  V30 LGRP
M  V30 2 SUP 2 ATOMS=(1 10) XBONDS=(1 9) BRKXYZ=(9 -0.511200 -0.296000 0.0000-
M  V30 00 0.000000 0.000000 0.000000 0.000000 0.000000 0.000000) LABEL=OH CLA-
M  V30 SS=LGRP
M  V30 3 SUP 3 ATOMS=(1 11) XBONDS=(1 10) BRKXYZ=(9 -0.509300 -0.299250 0.000-
M  V30 000 0.000000 0.000000 0.000000 0.000000 0.000000 0.000000) LABEL=H CLA-
M  V30 SS=LGRP
M  V30 4 SUP 4 ATOMS=(8 1 2 3 4 6 7 8 9) XBONDS=(3 9 4 10) BRKXYZ=(9 0.511200-
M  V30  0.296000 0.000000 -0.511500 0.295450 0.000000 0.000000 0.000000 0.000-
M  V30 000) BRKXYZ=(9 0.509300 0.299250 0.000000 0.000000 0.000000 0.000000 0-
M  V30 .000000 0.000000 0.000000) LABEL=D CLASS=AA SAP=(3 4 5 Al) SAP=(3 1 10-
M  V30  Br) SAP=(3 9 11 Cx) NATREPLACE=AA/D
M  V30 END SGROUP
M  V30 END CTAB
M  V30 TEMPLATE 5 AA/Ala/A/ NATREPLACE=AA/A
M  V30 BEGIN CTAB
M  V30 COUNTS 7 6 3 0 0
M  V30 BEGIN ATOM
M  V30 1 N -1.2549 -0.392 0.0 0
M  V30 2 C -0.272 0.2633 0.0 0 CFG=1
M  V30 3 C -0.3103 1.7393 0.0 0
M  V30 4 C 1.0523 -0.392 0.0 0
M  V30 5 O 1.0829 -1.5722 0.0 0
M  V30 6 O 2.0353 0.2633 0.0 0
M  V30 7 H -2.3334 0.0905 0.0 0
M  V30 END ATOM
M  V30 BEGIN BOND
M  V30 1 1 2 1
M  V30 2 1 2 3 CFG=1
M  V30 3 1 2 4
M  V30 4 2 4 5
M  V30 5 1 4 6
M  V30 6 1 1 7
M  V30 END BOND
M  V30 BEGIN COLLECTION
M  V30 MDLV30/STEABS ATOMS=(1 2)
M  V30 END COLLECTION
M  V30 BEGIN SGROUP
M  V30 1 SUP 1 ATOMS=(1 7) XBONDS=(1 6) BRKXYZ=(9 0.539250 -0.241250 0.000000-
M  V30  0.000000 0.000000 0.000000 0.000000 0.000000 0.000000) LABEL=H CLASS=-
M  V30 LGRP
M  V30 2 SUP 2 ATOMS=(1 6) XBONDS=(1 5) BRKXYZ=(9 -0.491500 -0.327650 0.00000-
M  V30 0 0.000000 0.000000 0.000000 0.000000 0.000000 0.000000) LABEL=OH CLAS-
M  V30 S=LGRP
M  V30 3 SUP 3 ATOMS=(5 1 2 3 4 5) XBONDS=(2 6 5) BRKXYZ=(9 -0.539250 0.24125-
M  V30 0 0.000000 0.491500 0.327650 0.000000 0.000000 0.000000 0.000000) LABE-
M  V30 L=A CLASS=AA SAP=(3 1 7 Al) SAP=(3 4 6 Br) NATREPLACE=AA/A
M  V30 END SGROUP
M  V30 END CTAB
M  V30 TEMPLATE 6 AA/Cys/C/ NATREPLACE=AA/C
M  V30 BEGIN CTAB
M  V30 COUNTS 9 8 4 0 0
M  V30 BEGIN ATOM
M  V30 1 C 1.4457 -1.1333 0.0 0
M  V30 2 C 0.1453 -0.384 0.0 0 CFG=2
M  V30 3 C 0.143 1.1168 0.0 0
M  V30 4 S -1.1573 1.8661 0.0 0
M  V30 5 N -1.1551 -1.1333 0.0 0
M  V30 6 O 1.4475 -2.3333 0.0 0
M  V30 7 O 2.4842 -0.532 0.0 0
M  V30 8 H -2.1942 -0.5331 0.0 0
M  V30 9 H -1.1591 3.0661 0.0 0
M  V30 END ATOM
M  V30 BEGIN BOND
M  V30 1 2 6 1
M  V30 2 1 1 2
M  V30 3 1 1 7
M  V30 4 1 2 5
M  V30 5 1 2 3 CFG=1
M  V30 6 1 3 4
M  V30 7 1 5 8
M  V30 8 1 4 9
M  V30 END BOND
M  V30 BEGIN COLLECTION
M  V30 MDLV30/STEABS ATOMS=(1 2)
M  V30 END COLLECTION
M  V30 BEGIN SGROUP
M  V30 1 SUP 1 ATOMS=(1 8) XBONDS=(1 7) BRKXYZ=(9 0.519550 -0.300100 0.000000-
M  V30  0.000000 0.000000 0.000000 0.000000 0.000000 0.000000) LABEL=H CLASS=-
M  V30 LGRP
M  V30 2 SUP 2 ATOMS=(1 7) XBONDS=(1 3) BRKXYZ=(9 -0.519250 -0.300650 0.00000-
M  V30 0 0.000000 0.000000 0.000000 0.000000 0.000000 0.000000) LABEL=OH CLAS-
M  V30 S=LGRP
M  V30 3 SUP 3 ATOMS=(1 9) XBONDS=(1 8) BRKXYZ=(9 0.000900 -0.600000 0.000000-
M  V30  0.000000 0.000000 0.000000 0.000000 0.000000 0.000000) LABEL=H CLASS=-
M  V30 LGRP
M  V30 4 SUP 4 ATOMS=(6 1 2 3 4 5 6) XBONDS=(3 3 8 7) BRKXYZ=(9 0.519250 0.30-
M  V30 0650 0.000000 -0.000900 0.600000 0.000000 0.000000 0.000000 0.000000) -
M  V30 BRKXYZ=(9 -0.519550 0.300100 0.000000 0.000000 0.000000 0.000000 0.000-
M  V30 000 0.000000 0.000000) LABEL=C CLASS=AA SAP=(3 5 8 Al) SAP=(3 1 7 Br) -
M  V30 SAP=(3 4 9 Cx) NATREPLACE=AA/C
M  V30 END SGROUP
M  V30 END CTAB
M  V30 TEMPLATE 7 AA/Glu/E/ NATREPLACE=AA/E
M  V30 BEGIN CTAB
M  V30 COUNTS 12 11 4 0 0
M  V30 BEGIN ATOM
M  V30 1 C 0.3442 -1.4777 0.0 0 CFG=1
M  V30 2 C 1.6244 -2.2154 0.0 0
M  V30 3 O 1.6261 -3.3968 0.0 0
M  V30 4 O 2.6469 -1.6234 0.0 0
M  V30 5 N -0.9361 -2.2154 0.0 0
M  V30 6 H -1.9591 -1.6245 0.0 0
M  V30 7 C 0.3419 -0.0001 0.0 0
M  V30 8 C -0.9383 0.7375 0.0 0
M  V30 9 C -0.9406 2.2151 0.0 0
M  V30 10 O -1.9642 2.8049 0.0 0
M  V30 11 O 0.0819 2.8071 0.0 0
M  V30 12 H 0.0729 3.9885 0.0 0
M  V30 END ATOM
M  V30 BEGIN BOND
M  V30 1 1 2 1
M  V30 2 2 2 3
M  V30 3 1 2 4
M  V30 4 1 1 5
M  V30 5 1 5 6
M  V30 6 1 1 7 CFG=1
M  V30 7 1 7 8
M  V30 8 1 8 9
M  V30 9 2 9 10
M  V30 10 1 9 11
M  V30 11 1 11 12
M  V30 END BOND
M  V30 BEGIN COLLECTION
M  V30 MDLV30/STEABS ATOMS=(1 1)
M  V30 END COLLECTION
M  V30 BEGIN SGROUP
M  V30 1 SUP 1 ATOMS=(1 6) XBONDS=(1 5) BRKXYZ=(9 0.511500 -0.295450 0.000000-
M  V30  0.000000 0.000000 0.000000 0.000000 0.000000 0.000000) LABEL=H CLASS=-
M  V30 LGRP
M  V30 2 SUP 2 ATOMS=(1 4) XBONDS=(1 3) BRKXYZ=(9 -0.511250 -0.296000 0.00000-
M  V30 0 0.000000 0.000000 0.000000 0.000000 0.000000 0.000000) LABEL=OH CLAS-
M  V30 S=LGRP
M  V30 3 SUP 3 ATOMS=(1 12) XBONDS=(1 11) BRKXYZ=(9 0.004500 -0.590700 0.0000-
M  V30 00 0.000000 0.000000 0.000000 0.000000 0.000000 0.000000) LABEL=H CLAS-
M  V30 S=LGRP
M  V30 4 SUP 4 ATOMS=(9 1 2 3 5 7 8 9 10 11) XBONDS=(3 3 5 11) BRKXYZ=(9 0.51-
M  V30 1250 0.296000 0.000000 -0.511500 0.295450 0.000000 0.000000 0.000000 0-
M  V30 .000000) BRKXYZ=(9 -0.004500 0.590700 0.000000 0.000000 0.000000 0.000-
M  V30 000 0.000000 0.000000 0.000000) LABEL=E CLASS=AA SAP=(3 5 6 Al) SAP=(3-
M  V30  2 4 Br) SAP=(3 11 12 Cx) NATREPLACE=AA/E
M  V30 END SGROUP
M  V30 END CTAB
M  V30 END TEMPLATE
M  END
