
  -INDIGO-01000000002D

  0  0  0  0  0  0  0  0  0  0  0 V3000
M  V30 BEGIN CTAB
M  V30 COUNTS 41 40 0 0 0
M  V30 BEGIN ATOM
M  V30 1 H -1.04793 1.40149 0.0 0
M  V30 2 C 0.176777 0.176777 0.0 0 CFG=2
M  V30 3 C 2.64645 -1.85355 0.0 0 CFG=2
M  V30 4 C 9.78913 -4.93558 0.0 0
M  V30 5 C 11.6464 -6.35355 0.0 0 CFG=2
M  V30 6 N 13.6805 -7.59475 0.0 0
M  V30 7 C 14.6464 -7.85355 0.0 0 CFG=2
M  V30 8 N 10.6805 -6.09475 0.0 0
M  V30 9 C 14.9052 -8.81946 0.0 0
M  V30 10 O 15.8712 -9.07826 0.0 0
M  V30 11 O 14.1981 -9.52657 0.0 0
M  V30 12 C 15.3536 -7.14645 0.0 0 CFG=1
M  V30 13 C 16.3195 -7.40525 0.0 0
M  V30 14 C 15.0948 -6.18054 0.0 0
M  V30 15 C 15.8019 -5.47343 0.0 0
M  V30 16 C 9.53033 -3.96967 0.0 0
M  V30 17 C 11.9052 -7.31946 0.0 0
M  V30 18 N 8.56442 -3.71087 0.0 0
M  V30 19 O 11.1981 -8.02657 0.0 0
M  V30 20 C 12.3536 -5.64645 0.0 0
M  V30 21 Se 12.0948 -4.68054 0.0 0
M  V30 22 H 12.8019 -3.97343 0.0 0
M  V30 23 N 4.68054 -3.09475 0.0 0
M  V30 24 O 9.08202 -5.64268 0.0 0
M  V30 25 C 5.64645 -3.35355 0.0 0 CFG=2
M  V30 26 C 5.90525 -4.31946 0.0 0
M  V30 27 N 1.68054 -1.59475 0.0 0
M  V30 28 O 5.19814 -5.02657 0.0 0
M  V30 29 C 6.35355 -2.64645 0.0 0 CFG=2
M  V30 30 O 7.31946 -2.90525 0.0 0
M  V30 31 H 8.02657 -2.19814 0.0 0
M  V30 32 C 6.09475 -1.68054 0.0 0
M  V30 33 C 2.90525 -2.81946 0.0 0
M  V30 34 N -0.789131 0.435578 0.0 0
M  V30 35 O 2.19814 -3.52657 0.0 0
M  V30 36 C 3.35355 -1.14645 0.0 0
M  V30 37 S 3.09475 -0.180539 0.0 0
M  V30 38 H 3.80186 0.526568 0.0 0
M  V30 39 C 0.435578 -0.789131 0.0 0
M  V30 40 O -0.271529 -1.49624 0.0 0
M  V30 41 C 0.883883 0.883883 0.0 0
M  V30 END ATOM
M  V30 BEGIN BOND
M  V30 1 1 34 2
M  V30 2 1 27 3
M  V30 3 2 4 24
M  V30 4 1 16 4
M  V30 5 1 6 7
M  V30 6 1 8 5
M  V30 7 1 7 9
M  V30 8 1 9 10
M  V30 9 2 9 11
M  V30 10 1 7 12 CFG=1
M  V30 11 1 12 13 CFG=3
M  V30 12 1 12 14
M  V30 13 1 14 15
M  V30 14 1 23 25
M  V30 15 1 5 17
M  V30 16 1 18 16
M  V30 17 2 17 19
M  V30 18 1 5 20 CFG=1
M  V30 19 1 20 21
M  V30 20 1 21 22
M  V30 21 1 25 26
M  V30 22 1 17 6
M  V30 23 1 34 1
M  V30 24 1 3 33
M  V30 25 1 4 8
M  V30 26 2 26 28
M  V30 27 1 25 29 CFG=1
M  V30 28 1 29 30 CFG=1
M  V30 29 1 30 31
M  V30 30 1 29 32
M  V30 31 1 2 39
M  V30 32 1 26 18
M  V30 33 2 33 35
M  V30 34 1 3 36 CFG=1
M  V30 35 1 36 37
M  V30 36 1 37 38
M  V30 37 1 33 23
M  V30 38 2 39 40
M  V30 39 1 2 41 CFG=1
M  V30 40 1 39 27
M  V30 END BOND
M  V30 BEGIN COLLECTION
M  V30 MDLV30/STEABS ATOMS=(7 2 3 5 7 12 25 29)
M  V30 END COLLECTION
M  V30 END CTAB
M  V30 BEGIN TEMPLATE
M  V30 TEMPLATE 1 AA/Ala/A/ NATREPLACE=AA/A
M  V30 BEGIN CTAB
M  V30 COUNTS 7 6 3 0 0
M  V30 BEGIN ATOM
M  V30 1 N -0.866 -0.25 0.0 0
M  V30 2 C 0.0 0.25 0.0 0 CFG=2
M  V30 3 H -1.732 0.25 0.0 0
M  V30 4 C 0.866 -0.25 0.0 0
M  V30 5 O 1.732 0.25 0.0 0
M  V30 6 O 0.866 -1.25 0.0 0
M  V30 7 C 0.0 1.25 0.0 0
M  V30 END ATOM
M  V30 BEGIN BOND
M  V30 1 1 1 2
M  V30 2 1 1 3
M  V30 3 1 2 4
M  V30 4 1 4 5
M  V30 5 2 4 6
M  V30 6 1 2 7 CFG=1
M  V30 END BOND
M  V30 BEGIN COLLECTION
M  V30 MDLV30/STEABS ATOMS=(1 2)
M  V30 END COLLECTION
M  V30 BEGIN SGROUP
M  V30 1 SUP 1 ATOMS=(1 3) XBONDS=(1 2) BRKXYZ=(9 0.433000 -0.250000 0.000000-
M  V30  0.000000 0.000000 0.000000 0.000000 0.000000 0.000000) LABEL=H CLASS=-
M  V30 LGRP
M  V30 2 SUP 2 ATOMS=(1 5) XBONDS=(1 4) BRKXYZ=(9 -0.433000 -0.250000 0.00000-
M  V30 0 0.000000 0.000000 0.000000 0.000000 0.000000 0.000000) LABEL=OH CLAS-
M  V30 S=LGRP
M  V30 3 SUP 3 ATOMS=(5 1 2 4 6 7) XBONDS=(2 2 4) BRKXYZ=(9 -0.433000 0.25000-
M  V30 0 0.000000 0.433000 0.250000 0.000000 0.000000 0.000000 0.000000) LABE-
M  V30 L=A CLASS=AA SAP=(3 1 3 Al) SAP=(3 4 5 Br) NATREPLACE=AA/A
M  V30 END SGROUP
M  V30 END CTAB
M  V30 TEMPLATE 2 AA/Cys/C/ NATREPLACE=AA/C
M  V30 BEGIN CTAB
M  V30 COUNTS 9 8 4 0 0
M  V30 BEGIN ATOM
M  V30 1 N -0.866 -1.0 0.0 0
M  V30 2 C 0.0 -0.5 0.0 0 CFG=2
M  V30 3 H -1.732 -0.5 0.0 0
M  V30 4 C 0.866 -1.0 0.0 0
M  V30 5 O 1.732 -0.5 0.0 0
M  V30 6 O 0.866 -2.0 0.0 0
M  V30 7 C 0.0 0.5 0.0 0
M  V30 8 S -0.866 1.0 0.0 0
M  V30 9 H -0.866 2.0 0.0 0
M  V30 END ATOM
M  V30 BEGIN BOND
M  V30 1 1 1 2
M  V30 2 1 1 3
M  V30 3 1 2 4
M  V30 4 1 4 5
M  V30 5 2 4 6
M  V30 6 1 2 7 CFG=1
M  V30 7 1 7 8
M  V30 8 1 8 9
M  V30 END BOND
M  V30 BEGIN COLLECTION
M  V30 MDLV30/STEABS ATOMS=(1 2)
M  V30 END COLLECTION
M  V30 BEGIN SGROUP
M  V30 1 SUP 1 ATOMS=(1 3) XBONDS=(1 2) BRKXYZ=(9 0.433000 -0.250000 0.000000-
M  V30  0.000000 0.000000 0.000000 0.000000 0.000000 0.000000) LABEL=H CLASS=-
M  V30 LGRP
M  V30 2 SUP 2 ATOMS=(1 5) XBONDS=(1 4) BRKXYZ=(9 -0.433000 -0.250000 0.00000-
M  V30 0 0.000000 0.000000 0.000000 0.000000 0.000000 0.000000) LABEL=OH CLAS-
M  V30 S=LGRP
M  V30 3 SUP 3 ATOMS=(1 9) XBONDS=(1 8) BRKXYZ=(9 0.000000 -0.500000 0.000000-
M  V30  0.000000 0.000000 0.000000 0.000000 0.000000 0.000000) LABEL=H CLASS=-
M  V30 LGRP
M  V30 4 SUP 4 ATOMS=(6 1 2 4 6 7 8) XBONDS=(3 2 4 8) BRKXYZ=(9 -0.433000 0.2-
M  V30 50000 0.000000 0.433000 0.250000 0.000000 0.000000 0.000000 0.000000) -
M  V30 BRKXYZ=(9 0.000000 0.500000 0.000000 0.000000 0.000000 0.000000 0.0000-
M  V30 00 0.000000 0.000000) LABEL=C CLASS=AA SAP=(3 1 3 Al) SAP=(3 4 5 Br) S-
M  V30 AP=(3 8 9 Cx) NATREPLACE=AA/C
M  V30 END SGROUP
M  V30 END CTAB
M  V30 TEMPLATE 3 AA/Thr/T/ NATREPLACE=AA/T
M  V30 BEGIN CTAB
M  V30 COUNTS 10 9 4 0 0
M  V30 BEGIN ATOM
M  V30 1 N -0.866 -1.0 0.0 0
M  V30 2 C 0.0 -0.5 0.0 0 CFG=2
M  V30 3 H -1.732 -0.5 0.0 0
M  V30 4 C 0.866 -1.0 0.0 0
M  V30 5 O 1.732 -0.5 0.0 0
M  V30 6 O 0.866 -2.0 0.0 0
M  V30 7 C 0.0 0.5 0.0 0 CFG=2
M  V30 8 O 0.866 1.0 0.0 0
M  V30 9 H 0.866 2.0 0.0 0
M  V30 10 C -0.866 1.0 0.0 0
M  V30 END ATOM
M  V30 BEGIN BOND
M  V30 1 1 1 2
M  V30 2 1 1 3
M  V30 3 1 2 4
M  V30 4 1 4 5
M  V30 5 2 4 6
M  V30 6 1 2 7 CFG=1
M  V30 7 1 7 8 CFG=1
M  V30 8 1 8 9
M  V30 9 1 7 10
M  V30 END BOND
M  V30 BEGIN COLLECTION
M  V30 MDLV30/STEABS ATOMS=(2 2 7)
M  V30 END COLLECTION
M  V30 BEGIN SGROUP
M  V30 1 SUP 1 ATOMS=(1 3) XBONDS=(1 2) BRKXYZ=(9 0.433000 -0.250000 0.000000-
M  V30  0.000000 0.000000 0.000000 0.000000 0.000000 0.000000) LABEL=H CLASS=-
M  V30 LGRP
M  V30 2 SUP 2 ATOMS=(1 5) XBONDS=(1 4) BRKXYZ=(9 -0.433000 -0.250000 0.00000-
M  V30 0 0.000000 0.000000 0.000000 0.000000 0.000000 0.000000) LABEL=OH CLAS-
M  V30 S=LGRP
M  V30 3 SUP 3 ATOMS=(1 9) XBONDS=(1 8) BRKXYZ=(9 0.000000 -0.500000 0.000000-
M  V30  0.000000 0.000000 0.000000 0.000000 0.000000 0.000000) LABEL=H CLASS=-
M  V30 LGRP
M  V30 4 SUP 4 ATOMS=(7 1 2 4 6 7 8 10) XBONDS=(3 2 4 8) BRKXYZ=(9 -0.433000 -
M  V30 0.250000 0.000000 0.433000 0.250000 0.000000 0.000000 0.000000 0.00000-
M  V30 0) BRKXYZ=(9 0.000000 0.500000 0.000000 0.000000 0.000000 0.000000 0.0-
M  V30 00000 0.000000 0.000000) LABEL=T CLASS=AA SAP=(3 1 3 Al) SAP=(3 4 5 Br-
M  V30 ) SAP=(3 8 9 Cx) NATREPLACE=AA/T
M  V30 END SGROUP
M  V30 END CTAB
M  V30 TEMPLATE 4 AA/Gly/G/ NATREPLACE=AA/G
M  V30 BEGIN CTAB
M  V30 COUNTS 6 5 3 0 0
M  V30 BEGIN ATOM
M  V30 1 N -0.866 0.25 0.0 0
M  V30 2 C 0.0 0.75 0.0 0
M  V30 3 C 0.866 0.25 0.0 0
M  V30 4 O 1.732 0.75 0.0 0
M  V30 5 O 0.866 -0.75 0.0 0
M  V30 6 H -1.732 0.75 0.0 0
M  V30 END ATOM
M  V30 BEGIN BOND
M  V30 1 1 1 2
M  V30 2 1 2 3
M  V30 3 1 3 4
M  V30 4 2 3 5
M  V30 5 1 1 6
M  V30 END BOND
M  V30 BEGIN SGROUP
M  V30 1 SUP 1 ATOMS=(1 6) XBONDS=(1 5) BRKXYZ=(9 0.433000 -0.250000 0.000000-
M  V30  0.000000 0.000000 0.000000 0.000000 0.000000 0.000000) LABEL=H CLASS=-
M  V30 LGRP
M  V30 2 SUP 2 ATOMS=(1 4) XBONDS=(1 3) BRKXYZ=(9 -0.433000 -0.250000 0.00000-
M  V30 0 0.000000 0.000000 0.000000 0.000000 0.000000 0.000000) LABEL=OH CLAS-
M  V30 S=LGRP
M  V30 3 SUP 3 ATOMS=(4 1 2 3 5) XBONDS=(2 5 3) BRKXYZ=(9 -0.433000 0.250000 -
M  V30 0.000000 0.433000 0.250000 0.000000 0.000000 0.000000 0.000000) LABEL=-
M  V30 G CLASS=AA SAP=(3 1 6 Al) SAP=(3 3 4 Br) NATREPLACE=AA/G
M  V30 END SGROUP
M  V30 END CTAB
M  V30 TEMPLATE 5 AA/Sec/U/ NATREPLACE=AA/U
M  V30 BEGIN CTAB
M  V30 COUNTS 9 8 4 0 0
M  V30 BEGIN ATOM
M  V30 1 N -0.866 -1.0 0.0 0
M  V30 2 C 0.0 -0.5 0.0 0 CFG=2
M  V30 3 H -1.732 -0.5 0.0 0
M  V30 4 C 0.866 -1.0 0.0 0
M  V30 5 O 1.732 -0.5 0.0 0
M  V30 6 O 0.866 -2.0 0.0 0
M  V30 7 C 0.0 0.5 0.0 0
M  V30 8 Se -0.866 1.0 0.0 0
M  V30 9 H -0.866 2.0 0.0 0
M  V30 END ATOM
M  V30 BEGIN BOND
M  V30 1 1 1 2
M  V30 2 1 1 3
M  V30 3 1 2 4
M  V30 4 1 4 5
M  V30 5 2 4 6
M  V30 6 1 2 7 CFG=1
M  V30 7 1 7 8
M  V30 8 1 8 9
M  V30 END BOND
M  V30 BEGIN COLLECTION
M  V30 MDLV30/STEABS ATOMS=(1 2)
M  V30 END COLLECTION
M  V30 BEGIN SGROUP
M  V30 1 SUP 1 ATOMS=(1 3) XBONDS=(1 2) BRKXYZ=(9 0.433000 -0.250000 0.000000-
M  V30  0.000000 0.000000 0.000000 0.000000 0.000000 0.000000) LABEL=H CLASS=-
M  V30 LGRP
M  V30 2 SUP 2 ATOMS=(1 5) XBONDS=(1 4) BRKXYZ=(9 -0.433000 -0.250000 0.00000-
M  V30 0 0.000000 0.000000 0.000000 0.000000 0.000000 0.000000) LABEL=OH CLAS-
M  V30 S=LGRP
M  V30 3 SUP 3 ATOMS=(1 9) XBONDS=(1 8) BRKXYZ=(9 0.000000 -0.500000 0.000000-
M  V30  0.000000 0.000000 0.000000 0.000000 0.000000 0.000000) LABEL=H CLASS=-
M  V30 LGRP
M  V30 4 SUP 4 ATOMS=(6 1 2 4 6 7 8) XBONDS=(3 2 4 8) BRKXYZ=(9 -0.433000 0.2-
M  V30 50000 0.000000 0.433000 0.250000 0.000000 0.000000 0.000000 0.000000) -
M  V30 BRKXYZ=(9 0.000000 0.500000 0.000000 0.000000 0.000000 0.000000 0.0000-
M  V30 00 0.000000 0.000000) LABEL=U CLASS=AA SAP=(3 1 3 Al) SAP=(3 4 5 Br) S-
M  V30 AP=(3 8 9 Cx) NATREPLACE=AA/U
M  V30 END SGROUP
M  V30 END CTAB
M  V30 TEMPLATE 6 AA/Ile/I/ NATREPLACE=AA/I
M  V30 BEGIN CTAB
M  V30 COUNTS 10 9 3 0 0
M  V30 BEGIN ATOM
M  V30 1 N -0.866 -1.0 0.0 0
M  V30 2 C 0.0 -0.5 0.0 0 CFG=2
M  V30 3 H -1.732 -0.5 0.0 0
M  V30 4 C 0.866 -1.0 0.0 0
M  V30 5 O 1.732 -0.5 0.0 0
M  V30 6 O 0.866 -2.0 0.0 0
M  V30 7 C 0.0 0.5 0.0 0 CFG=1
M  V30 8 C 0.866 1.0 0.0 0
M  V30 9 C -0.866 1.0 0.0 0
M  V30 10 C -0.866 2.0 0.0 0
M  V30 END ATOM
M  V30 BEGIN BOND
M  V30 1 1 1 2
M  V30 2 1 1 3
M  V30 3 1 2 4
M  V30 4 1 4 5
M  V30 5 2 4 6
M  V30 6 1 2 7 CFG=1
M  V30 7 1 7 8 CFG=3
M  V30 8 1 7 9
M  V30 9 1 9 10
M  V30 END BOND
M  V30 BEGIN COLLECTION
M  V30 MDLV30/STEABS ATOMS=(2 2 7)
M  V30 END COLLECTION
M  V30 BEGIN SGROUP
M  V30 1 SUP 1 ATOMS=(1 3) XBONDS=(1 2) BRKXYZ=(9 0.433000 -0.250000 0.000000-
M  V30  0.000000 0.000000 0.000000 0.000000 0.000000 0.000000) LABEL=H CLASS=-
M  V30 LGRP
M  V30 2 SUP 2 ATOMS=(1 5) XBONDS=(1 4) BRKXYZ=(9 -0.433000 -0.250000 0.00000-
M  V30 0 0.000000 0.000000 0.000000 0.000000 0.000000 0.000000) LABEL=OH CLAS-
M  V30 S=LGRP
M  V30 3 SUP 3 ATOMS=(8 1 2 4 6 7 8 9 10) XBONDS=(2 2 4) BRKXYZ=(9 -0.433000 -
M  V30 0.250000 0.000000 0.433000 0.250000 0.000000 0.000000 0.000000 0.00000-
M  V30 0) LABEL=I CLASS=AA SAP=(3 1 3 Al) SAP=(3 4 5 Br) NATREPLACE=AA/I
M  V30 END SGROUP
M  V30 END CTAB
M  V30 END TEMPLATE
M  END
