
  -INDIGO-01000000002D

  0  0  0  0  0  0  0  0  0  0  0 V3000
M  V30 BEGIN CTAB
M  V30 COUNTS 41 40 0 0 0
M  V30 BEGIN ATOM
M  V30 1 N 13.6805 -7.59475 0.0 0
M  V30 2 C 14.6464 -7.85355 0.0 0 CFG=2
M  V30 3 C 14.9052 -8.81946 0.0 0
M  V30 4 O 15.8712 -9.07826 0.0 0
M  V30 5 O 14.1981 -9.52657 0.0 0
M  V30 6 C 15.3536 -7.14645 0.0 0 CFG=1
M  V30 7 C 16.3195 -7.40525 0.0 0
M  V30 8 C 15.0948 -6.18054 0.0 0
M  V30 9 C 15.8019 -5.47343 0.0 0
M  V30 10 N 10.6805 -6.09475 0.0 0
M  V30 11 C 11.6464 -6.35355 0.0 0 CFG=2
M  V30 12 C 11.9052 -7.31946 0.0 0
M  V30 13 O 11.1981 -8.02657 0.0 0
M  V30 14 C 12.3536 -5.64645 0.0 0
M  V30 15 Se 12.0948 -4.68054 0.0 0
M  V30 16 H 12.8019 -3.97343 0.0 0
M  V30 17 N 8.56442 -3.71087 0.0 0
M  V30 18 C 9.53033 -3.96967 0.0 0
M  V30 19 C 9.78913 -4.93558 0.0 0
M  V30 20 O 9.08202 -5.64268 0.0 0
M  V30 21 N 4.68054 -3.09475 0.0 0
M  V30 22 C 5.64645 -3.35355 0.0 0 CFG=2
M  V30 23 C 5.90525 -4.31946 0.0 0
M  V30 24 O 5.19814 -5.02657 0.0 0
M  V30 25 C 6.35355 -2.64645 0.0 0 CFG=2
M  V30 26 O 7.31946 -2.90525 0.0 0
M  V30 27 H 8.02657 -2.19814 0.0 0
M  V30 28 C 6.09475 -1.68054 0.0 0
M  V30 29 N 1.68054 -1.59475 0.0 0
M  V30 30 C 2.64645 -1.85355 0.0 0 CFG=2
M  V30 31 C 2.90525 -2.81946 0.0 0
M  V30 32 O 2.19814 -3.52657 0.0 0
M  V30 33 C 3.35355 -1.14645 0.0 0
M  V30 34 S 3.09475 -0.180539 0.0 0
M  V30 35 H 3.80186 0.526568 0.0 0
M  V30 36 N -0.789131 0.435578 0.0 0
M  V30 37 C 0.176777 0.176777 0.0 0 CFG=2
M  V30 38 H -1.04793 1.40149 0.0 0
M  V30 39 C 0.435578 -0.789131 0.0 0
M  V30 40 O -0.271529 -1.49624 0.0 0
M  V30 41 C 0.883883 0.883883 0.0 0
M  V30 END ATOM
M  V30 BEGIN BOND
M  V30 1 1 39 29
M  V30 2 1 31 21
M  V30 3 1 23 17
M  V30 4 1 19 10
M  V30 5 1 12 1
M  V30 6 1 1 2
M  V30 7 1 10 11
M  V30 8 1 2 3
M  V30 9 1 3 4
M  V30 10 2 3 5
M  V30 11 1 2 6 CFG=1
M  V30 12 1 6 7 CFG=3
M  V30 13 1 6 8
M  V30 14 1 8 9
M  V30 15 1 18 19
M  V30 16 1 11 12
M  V30 17 1 17 18
M  V30 18 2 12 13
M  V30 19 1 11 14 CFG=1
M  V30 20 1 14 15
M  V30 21 1 15 16
M  V30 22 1 21 22
M  V30 23 2 19 20
M  V30 24 1 36 38
M  V30 25 1 22 23
M  V30 26 1 29 30
M  V30 27 2 23 24
M  V30 28 1 22 25 CFG=1
M  V30 29 1 25 26 CFG=1
M  V30 30 1 26 27
M  V30 31 1 25 28
M  V30 32 1 30 31
M  V30 33 1 36 37
M  V30 34 2 31 32
M  V30 35 1 30 33 CFG=1
M  V30 36 1 33 34
M  V30 37 1 34 35
M  V30 38 1 37 39
M  V30 39 2 39 40
M  V30 40 1 37 41 CFG=1
M  V30 END BOND
M  V30 BEGIN COLLECTION
M  V30 MDLV30/STEABS ATOMS=(7 2 6 11 22 25 30 37)
M  V30 END COLLECTION
M  V30 END CTAB
M  END
